data_image0
_cell_length_a       20
_cell_length_b       20
_cell_length_c       6
_cell_angle_alpha    90
_cell_angle_beta     90
_cell_angle_gamma    90

_symmetry_space_group_name_H-M    "P 1"
_symmetry_int_tables_number       1

loop_
  _symmetry_equiv_pos_as_xyz
  'x, y, z'

loop_
  _atom_site_label
  _atom_site_occupancy
  _atom_site_Cartn_x
  _atom_site_Cartn_y
  _atom_site_Cartn_z
  _atom_site_thermal_displace_type
  _atom_site_B_iso_or_equiv
  _atom_site_type_symbol
  S1       1.0000 3.55975  0.49058  4.59500  Biso   1.000  S
  S2       1.0000 3.55975  0.49058  1.40500  Biso   1.000  S
  S3       1.0000 0.90497  1.76815  4.59500  Biso   1.000  S
  S4       1.0000 0.90497  1.76815  1.40500  Biso   1.000  S
  Mo1      1.0000 0.14192  4.22022  3.00000  Biso   1.000  Mo
  S5       1.0000 1.44778  5.58508  4.59500  Biso   1.000  S
  S6       1.0000 1.44778  5.58508  1.40500  Biso   1.000  S
  S7       1.0000 5.10955  0.38307  4.59500  Biso   1.000  S
  S8       1.0000 5.10955  0.38307  1.40500  Biso   1.000  S
  S9       1.0000 6.58805  1.64335  4.59500  Biso   1.000  S
  S10      1.0000 6.58805  1.64335  1.40500  Biso   1.000  S
  S11      1.0000 2.74530  2.33190  3.00000  Biso   1.000  S
  S12      1.0000 3.99237  3.70044  4.59500  Biso   1.000  S
  S13      1.0000 3.99237  3.70044  1.40500  Biso   1.000  S
  Mo2      1.0000 3.00433  5.16774  3.00000  Biso   1.000  Mo
  S14      1.0000 4.27477  6.53921  3.00000  Biso   1.000  S
  Mo3      1.0000 0.41139  7.31148  3.00000  Biso   1.000  Mo
  S15      1.0000 1.83874  8.70624  3.00000  Biso   1.000  S
  Mo4      1.0000 0.81191  10.57837  3.00000  Biso   1.000  Mo
  S16      1.0000 2.47468  11.58280  4.59500  Biso   1.000  S
  S17      1.0000 2.47468  11.58280  1.40500  Biso   1.000  S
  S18      1.0000 0.67802  17.55562  4.59500  Biso   1.000  S
  S19      1.0000 0.67802  17.55562  1.40500  Biso   1.000  S
  Mo5      1.0000 8.55752  1.01466  3.00000  Biso   1.000  Mo
  S20      1.0000 9.07649  2.83398  4.59500  Biso   1.000  S
  S21      1.0000 9.07649  2.83398  1.40500  Biso   1.000  S
  Mo6      1.0000 5.67269  3.19193  3.00000  Biso   1.000  Mo
  S22      1.0000 6.86170  4.65754  3.00000  Biso   1.000  S
  Mo7      1.0000 5.94849  6.25141  3.00000  Biso   1.000  Mo
  S23      1.0000 7.12748  7.61349  4.59500  Biso   1.000  S
  S24      1.0000 7.12748  7.61349  1.40500  Biso   1.000  S
  Mo8      1.0000 3.52639  8.12154  3.00000  Biso   1.000  Mo
  S25      1.0000 4.61226  9.48857  3.00000  Biso   1.000  S
  Mo9      1.0000 4.25244  11.31475  3.00000  Biso   1.000  Mo
  S26      1.0000 5.13275  12.71329  4.59500  Biso   1.000  S
  S27      1.0000 5.13275  12.71329  1.40500  Biso   1.000  S
  S28      1.0000 2.76429  14.94281  4.59500  Biso   1.000  S
  S29      1.0000 2.76429  14.94281  1.40500  Biso   1.000  S
  Mo10     1.0000 2.32637  16.58967  3.00000  Biso   1.000  Mo
  S30      1.0000 3.12597  18.32039  4.59500  Biso   1.000  S
  S31      1.0000 3.12597  18.32039  1.40500  Biso   1.000  S
  S32      1.0000 10.97939  0.59091  3.00000  Biso   1.000  S
  Mo11     1.0000 11.07890  2.54504  3.00000  Biso   1.000  Mo
  S33      1.0000 12.25323  3.77670  4.59500  Biso   1.000  S
  S34      1.0000 12.25323  3.77670  1.40500  Biso   1.000  S
  Mo12     1.0000 8.67553  4.56402  3.00000  Biso   1.000  Mo
  S35      1.0000 9.75237  6.02260  4.59500  Biso   1.000  S
  S36      1.0000 9.75237  6.02260  1.40500  Biso   1.000  S
  Mo13     1.0000 8.98303  7.88050  3.00000  Biso   1.000  Mo
  S37      1.0000 10.41599  9.08835  4.59500  Biso   1.000  S
  S38      1.0000 10.41599  9.08835  1.40500  Biso   1.000  S
  Mo14     1.0000 6.50773  9.58077  3.00000  Biso   1.000  Mo
  S39      1.0000 7.62604  10.87922  3.00000  Biso   1.000  S
  Mo15     1.0000 7.07294  12.82608  3.00000  Biso   1.000  Mo
  S40      1.0000 8.18913  14.12457  4.59500  Biso   1.000  S
  S41      1.0000 8.18913  14.12457  1.40500  Biso   1.000  S
  S42      1.0000 5.57350  16.16885  3.00000  Biso   1.000  S
  Mo16     1.0000 4.85385  17.74134  3.00000  Biso   1.000  Mo
  S43      1.0000 6.47489  18.91915  4.59500  Biso   1.000  S
  S44      1.0000 6.47489  18.91915  1.40500  Biso   1.000  S
  Mo17     1.0000 1.35047  19.71291  3.00000  Biso   1.000  Mo
  S45      1.0000 18.44687  0.28709  4.59500  Biso   1.000  S
  S46      1.0000 18.44687  0.28709  1.40500  Biso   1.000  S
  Mo18     1.0000 13.04113  0.76180  3.00000  Biso   1.000  Mo
  S47      1.0000 14.53966  1.98696  4.59500  Biso   1.000  S
  S48      1.0000 14.53966  1.98696  1.40500  Biso   1.000  S
  Mo19     1.0000 14.18815  3.92395  3.00000  Biso   1.000  Mo
  S49      1.0000 15.35314  5.31057  4.59500  Biso   1.000  S
  S50      1.0000 15.35314  5.31057  1.40500  Biso   1.000  S
  Mo20     1.0000 11.56502  5.53304  3.00000  Biso   1.000  Mo
  S51      1.0000 12.57920  6.93639  4.59500  Biso   1.000  S
  S52      1.0000 12.57920  6.93639  1.40500  Biso   1.000  S
  Mo21     1.0000 12.29404  8.88756  3.00000  Biso   1.000  Mo
  S53      1.0000 13.24155  10.37665  4.59500  Biso   1.000  S
  S54      1.0000 13.24155  10.37665  1.40500  Biso   1.000  S
  Mo22     1.0000 9.44378  10.89657  3.00000  Biso   1.000  Mo
  S55      1.0000 10.65213  12.19611  4.59500  Biso   1.000  S
  S56      1.0000 10.65213  12.19611  1.40500  Biso   1.000  S
  Mo23     1.0000 9.99589  14.16906  3.00000  Biso   1.000  Mo
  S57      1.0000 11.44898  15.25200  4.59500  Biso   1.000  S
  S58      1.0000 11.44898  15.25200  1.40500  Biso   1.000  S
  Mo24     1.0000 7.40275  15.89123  3.00000  Biso   1.000  Mo
  S59      1.0000 8.58310  17.25278  4.59500  Biso   1.000  S
  S60      1.0000 8.58310  17.25278  1.40500  Biso   1.000  S
  Mo25     1.0000 8.51069  19.16189  3.00000  Biso   1.000  Mo
  S61      1.0000 17.65580  3.32269  4.59500  Biso   1.000  S
  S62      1.0000 17.65580  3.32269  1.40500  Biso   1.000  S
  Mo26     1.0000 17.21324  5.11741  3.00000  Biso   1.000  Mo
  S63      1.0000 18.59100  6.37024  4.59500  Biso   1.000  S
  S64      1.0000 18.59100  6.37024  1.40500  Biso   1.000  S
  Mo27     1.0000 14.52297  7.14451  3.00000  Biso   1.000  Mo
  S65      1.0000 15.69230  8.48654  4.59500  Biso   1.000  S
  S66      1.0000 15.69230  8.48654  1.40500  Biso   1.000  S
  Mo28     1.0000 15.18492  10.34493  3.00000  Biso   1.000  Mo
  S67      1.0000 16.22462  11.72741  4.59500  Biso   1.000  S
  S68      1.0000 16.22462  11.72741  1.40500  Biso   1.000  S
  S69      1.0000 13.87312  13.39700  4.59500  Biso   1.000  S
  S70      1.0000 13.87312  13.39700  1.40500  Biso   1.000  S
  Mo29     1.0000 13.19145  15.33774  3.00000  Biso   1.000  Mo
  S71      1.0000 14.35207  16.68859  4.59500  Biso   1.000  S
  S72      1.0000 14.35207  16.68859  1.40500  Biso   1.000  S
  Mo30     1.0000 10.48758  16.87084  3.00000  Biso   1.000  Mo
  S73      1.0000 11.13009  18.70065  4.59500  Biso   1.000  S
  S74      1.0000 11.13009  18.70065  1.40500  Biso   1.000  S
  Mo31     1.0000 19.22259  2.27542  3.00000  Biso   1.000  Mo
  Mo32     1.0000 17.47607  8.21891  3.00000  Biso   1.000  Mo
  S75      1.0000 19.11280  9.42353  4.59500  Biso   1.000  S
  S76      1.0000 19.11280  9.42353  1.40500  Biso   1.000  S
  Mo33     1.0000 18.00667  11.29380  3.00000  Biso   1.000  Mo
  S77      1.0000 19.58093  12.68013  4.59500  Biso   1.000  S
  S78      1.0000 19.58093  12.68013  1.40500  Biso   1.000  S
  Mo34     1.0000 15.81268  13.52776  3.00000  Biso   1.000  Mo
  S79      1.0000 16.76770  15.06591  4.59500  Biso   1.000  S
  S80      1.0000 16.76770  15.06591  1.40500  Biso   1.000  S
  Mo35     1.0000 15.99715  16.62264  3.00000  Biso   1.000  Mo
  S81      1.0000 17.33654  17.73927  4.59500  Biso   1.000  S
  S82      1.0000 17.33654  17.73927  1.40500  Biso   1.000  S
  Mo36     1.0000 13.14472  18.15480  3.00000  Biso   1.000  Mo
  S83      1.0000 14.67710  19.51117  4.59500  Biso   1.000  S
  S84      1.0000 14.67710  19.51117  1.40500  Biso   1.000  S
  S85      1.0000 19.85808  15.63351  4.59500  Biso   1.000  S
  S86      1.0000 19.85808  15.63351  1.40500  Biso   1.000  S
  Mo37     1.0000 19.10007  18.24291  3.00000  Biso   1.000  Mo
  Mo38     1.0000 16.24919  19.52870  3.00000  Biso   1.000  Mo
